*SPEF "ieee 1481-1999"
*DESIGN "ttsimon"
*DATE "02:11:23 Saturday July 13, 2024"
*VENDOR "The OpenROAD Project"
*PROGRAM "OpenROAD"
*VERSION "v2.0-14511-gedb4e7e37"
*DESIGN_FLOW "NAME_SCOPE LOCAL" "PIN_CAP NONE"
*DIVIDER /
*DELIMITER :
*BUS_DELIMITER []
*T_UNIT 1 NS
*C_UNIT 1 PF
*R_UNIT 1 OHM
*L_UNIT 1 HENRY

*NAME_MAP
*1 _0000_
*2 _0001_
*3 _0002_
*4 _0003_
*5 _0004_
*6 _0005_
*7 _0006_
*8 _0007_
*9 _0008_
*10 _0009_
*11 _0010_
*12 _0011_
*13 _0012_
*14 _0013_
*15 _0014_
*16 _0015_
*17 _0016_
*18 _0017_
*19 _0018_
*20 _0019_
*21 _0020_
*22 _0021_
*23 _0022_
*24 _0023_
*25 _0024_
*26 _0025_
*27 _0026_
*28 _0027_
*29 _0028_
*30 _0029_
*31 _0030_
*32 _0031_
*33 _0032_
*34 _0033_
*35 _0034_
*36 _0035_
*37 _0036_
*38 _0037_
*39 _0038_
*40 _0039_
*41 _0040_
*42 _0041_
*43 _0042_
*44 _0043_
*45 _0044_
*46 _0045_
*47 _0046_
*48 _0047_
*49 _0048_
*50 _0049_
*51 _0050_
*52 _0051_
*53 _0052_
*54 _0053_
*55 _0054_
*56 _0055_
*57 _0056_
*58 _0057_
*59 _0058_
*60 _0059_
*61 _0060_
*62 _0061_
*63 _0062_
*64 _0063_
*65 _0064_
*66 _0065_
*67 _0066_
*68 _0067_
*69 _0068_
*70 _0069_
*71 _0070_
*72 _0071_
*73 _0072_
*74 _0073_
*75 _0074_
*76 _0075_
*77 _0076_
*78 _0077_
*79 _0078_
*80 _0079_
*81 _0080_
*82 _0081_
*83 _0082_
*84 _0083_
*85 _0084_
*86 _0085_
*87 _0086_
*88 _0087_
*89 _0088_
*90 _0089_
*91 _0090_
*92 _0091_
*93 _0092_
*94 _0093_
*95 _0094_
*96 _0095_
*97 _0096_
*98 _0097_
*99 _0098_
*100 _0099_
*101 _0100_
*102 _0101_
*103 _0102_
*104 _0103_
*105 _0104_
*106 _0105_
*107 _0106_
*108 _0107_
*109 _0108_
*110 _0109_
*111 _0110_
*112 _0111_
*113 _0112_
*114 _0113_
*115 _0114_
*116 _0115_
*117 _0116_
*118 _0117_
*119 _0118_
*120 _0119_
*121 _0120_
*122 _0121_
*123 _0122_
*124 _0123_
*125 _0124_
*126 _0125_
*127 _0126_
*128 _0127_
*129 _0128_
*130 _0129_
*131 _0130_
*132 _0131_
*133 _0132_
*134 _0133_
*135 _0134_
*136 _0135_
*137 _0136_
*138 _0137_
*139 _0138_
*140 _0139_
*141 _0140_
*142 _0141_
*143 _0142_
*144 _0143_
*145 _0144_
*146 _0145_
*147 _0146_
*148 _0147_
*149 _0148_
*150 _0149_
*151 _0150_
*152 _0151_
*153 _0152_
*154 _0153_
*155 _0154_
*156 _0155_
*157 _0156_
*158 _0157_
*159 _0158_
*160 _0159_
*161 _0160_
*162 _0161_
*163 _0162_
*164 _0163_
*165 _0164_
*166 _0165_
*167 _0166_
*168 _0167_
*169 _0168_
*170 _0169_
*171 _0170_
*172 _0171_
*173 _0172_
*174 _0173_
*175 _0174_
*176 _0175_
*177 _0176_
*178 _0177_
*179 _0178_
*180 _0179_
*181 _0180_
*182 _0181_
*183 _0182_
*184 _0183_
*185 _0184_
*186 _0185_
*187 _0186_
*188 _0187_
*189 _0188_
*190 _0189_
*191 _0190_
*192 _0191_
*193 _0192_
*194 _0193_
*195 _0194_
*196 _0195_
*197 _0196_
*198 _0197_
*199 _0198_
*200 _0199_
*201 _0200_
*202 _0201_
*203 _0202_
*204 _0203_
*205 _0204_
*206 _0205_
*207 _0206_
*208 _0207_
*209 _0208_
*210 _0209_
*211 _0210_
*212 _0211_
*213 _0212_
*214 _0213_
*215 _0214_
*216 _0215_
*217 _0216_
*218 net4
*219 _0218_
*220 _0219_
*221 _0220_
*222 _0221_
*223 _0222_
*224 _0223_
*225 _0224_
*226 _0225_
*227 _0226_
*228 _0227_
*229 net3
*230 net2
*231 _0230_
*232 _0231_
*233 _0232_
*234 _0233_
*235 _0234_
*236 _0235_
*237 _0236_
*238 _0237_
*239 _0238_
*240 _0239_
*241 _0240_
*242 _0241_
*243 _0242_
*244 _0243_
*245 _0244_
*246 _0245_
*247 _0246_
*248 _0247_
*249 _0248_
*250 _0249_
*251 net108
*252 _0251_
*253 _0252_
*254 _0253_
*255 _0254_
*256 _0255_
*257 _0256_
*258 _0257_
*259 _0258_
*260 _0259_
*261 _0260_
*262 _0261_
*263 _0262_
*264 _0263_
*265 _0264_
*266 _0265_
*267 _0266_
*268 _0267_
*269 net107
*270 _0269_
*271 _0270_
*272 _0271_
*273 _0272_
*274 _0273_
*275 _0274_
*276 _0275_
*277 _0276_
*278 _0277_
*279 _0278_
*280 _0279_
*281 _0280_
*282 _0281_
*283 _0282_
*284 _0283_
*285 _0284_
*286 _0285_
*287 _0286_
*288 _0287_
*289 _0288_
*290 _0289_
*291 _0290_
*292 _0291_
*293 _0292_
*294 _0293_
*295 _0294_
*296 net106
*297 _0296_
*298 _0297_
*299 _0298_
*300 _0299_
*301 _0300_
*302 _0301_
*303 _0302_
*304 _0303_
*305 _0304_
*306 _0305_
*307 _0306_
*308 _0307_
*309 _0308_
*310 _0309_
*311 _0310_
*312 _0311_
*313 _0312_
*314 _0313_
*315 _0314_
*316 _0315_
*317 _0316_
*318 _0317_
*319 _0318_
*320 net105
*321 _0320_
*322 _0321_
*323 _0322_
*324 _0323_
*325 _0324_
*326 _0325_
*327 _0326_
*328 _0327_
*329 _0328_
*330 _0329_
*331 _0330_
*332 _0331_
*333 _0332_
*334 _0333_
*335 _0334_
*336 _0335_
*337 _0336_
*338 net104
*339 _0338_
*340 _0339_
*341 _0340_
*342 _0341_
*343 _0342_
*344 _0343_
*345 _0344_
*346 _0345_
*347 _0346_
*348 _0347_
*349 _0348_
*350 _0349_
*351 _0350_
*352 net103
*353 _0352_
*354 _0353_
*355 _0354_
*356 _0355_
*357 _0356_
*358 _0357_
*359 _0358_
*360 _0359_
*361 net102
*362 _0361_
*363 _0362_
*364 _0363_
*365 _0364_
*366 _0365_
*367 _0366_
*368 _0367_
*369 _0368_
*370 _0369_
*371 _0370_
*372 _0371_
*373 _0372_
*374 _0373_
*375 _0374_
*376 _0375_
*377 _0376_
*378 _0377_
*379 _0378_
*380 _0379_
*381 _0380_
*382 _0381_
*383 _0382_
*384 _0383_
*385 _0384_
*386 _0385_
*387 _0386_
*388 _0387_
*389 _0388_
*390 _0389_
*391 _0390_
*392 _0391_
*393 _0392_
*394 _0393_
*395 _0394_
*396 _0395_
*397 _0396_
*398 _0397_
*399 _0398_
*400 _0399_
*401 _0400_
*402 net101
*403 _0402_
*404 _0403_
*405 _0404_
*406 _0405_
*407 _0406_
*408 _0407_
*409 _0408_
*410 _0409_
*411 _0410_
*412 _0411_
*413 _0412_
*414 _0413_
*415 _0414_
*416 _0415_
*417 _0416_
*418 _0417_
*419 _0418_
*420 _0419_
*421 net100
*422 _0421_
*423 _0422_
*424 _0423_
*425 _0424_
*426 net99
*427 _0426_
*428 _0427_
*429 _0428_
*430 _0429_
*431 _0430_
*432 _0431_
*433 _0432_
*434 _0433_
*435 _0434_
*436 _0435_
*437 _0436_
*438 _0437_
*439 _0438_
*440 _0439_
*441 _0440_
*442 _0441_
*443 _0442_
*444 _0443_
*445 _0444_
*446 _0445_
*447 _0446_
*448 _0447_
*449 _0448_
*450 _0449_
*451 _0450_
*452 _0451_
*453 _0452_
*454 _0453_
*455 _0454_
*456 _0455_
*457 _0456_
*458 _0457_
*459 _0458_
*460 _0459_
*461 _0460_
*462 _0461_
*463 _0462_
*464 _0463_
*465 _0464_
*466 _0465_
*467 _0466_
*468 _0467_
*469 _0468_
*470 _0469_
*471 _0470_
*472 _0471_
*473 _0472_
*474 _0473_
*475 _0474_
*476 _0475_
*477 _0476_
*478 _0477_
*479 _0478_
*480 _0479_
*481 _0480_
*482 _0481_
*483 _0482_
*484 _0483_
*485 _0484_
*486 _0485_
*487 _0486_
*488 _0487_
*489 _0488_
*490 _0489_
*491 _0490_
*492 _0491_
*493 _0492_
*494 _0493_
*495 _0494_
*496 _0495_
*497 _0496_
*498 _0497_
*499 _0498_
*500 _0499_
*501 _0500_
*502 _0501_
*503 _0502_
*504 net98
*505 _0504_
*506 _0505_
*507 _0506_
*508 _0507_
*509 _0508_
*510 _0509_
*511 _0510_
*512 _0511_
*513 _0512_
*514 net97
*515 _0514_
*516 _0515_
*517 _0516_
*518 _0517_
*519 _0518_
*520 _0519_
*521 _0520_
*522 _0521_
*523 _0522_
*524 _0523_
*525 _0524_
*526 _0525_
*527 _0526_
*528 _0527_
*529 _0528_
*530 _0529_
*531 _0530_
*532 _0531_
*533 _0532_
*534 _0533_
*535 _0534_
*536 _0535_
*537 _0536_
*538 _0537_
*539 _0538_
*540 _0539_
*541 _0540_
*542 _0541_
*543 _0542_
*544 _0543_
*545 _0544_
*546 _0545_
*547 _0546_
*548 _0547_
*549 _0548_
*550 _0549_
*551 _0550_
*552 _0551_
*553 _0552_
*554 _0553_
*555 _0554_
*556 _0555_
*557 _0556_
*558 _0557_
*559 _0558_
*560 _0559_
*561 _0560_
*562 _0561_
*563 _0562_
*564 _0563_
*565 _0564_
*566 _0565_
*567 _0566_
*568 _0567_
*569 _0568_
*570 _0569_
*571 _0570_
*572 _0571_
*573 _0572_
*574 _0573_
*575 _0574_
*576 _0575_
*577 _0576_
*578 _0577_
*579 _0578_
*580 _0579_
*581 _0580_
*582 _0581_
*583 _0582_
*584 _0583_
*585 _0584_
*586 _0585_
*587 _0586_
*588 _0587_
*589 _0588_
*590 net96
*591 _0590_
*592 _0591_
*593 _0592_
*594 _0593_
*595 _0594_
*596 _0595_
*597 _0596_
*598 _0597_
*599 _0598_
*600 _0599_
*601 _0600_
*602 _0601_
*603 _0602_
*604 _0603_
*605 _0604_
*606 _0605_
*607 _0606_
*608 _0607_
*609 _0608_
*610 _0609_
*611 _0610_
*612 _0611_
*613 _0612_
*614 _0613_
*615 _0614_
*616 _0615_
*617 _0616_
*618 _0617_
*619 _0618_
*620 _0619_
*621 _0620_
*622 _0621_
*623 _0622_
*624 _0623_
*625 _0624_
*626 _0625_
*627 _0626_
*628 _0627_
*629 _0628_
*630 _0629_
*631 _0630_
*632 _0631_
*633 _0632_
*634 _0633_
*635 _0634_
*636 _0635_
*637 _0636_
*638 _0637_
*639 _0638_
*640 _0639_
*641 _0640_
*642 _0641_
*643 _0642_
*644 _0643_
*645 _0644_
*646 _0645_
*647 _0646_
*648 _0647_
*649 _0648_
*650 _0649_
*651 _0650_
*652 _0651_
*653 _0652_
*654 _0653_
*655 _0654_
*656 _0655_
*657 _0656_
*658 _0657_
*659 net95
*660 net94
*661 net93
*662 net92
*663 _0662_
*664 _0663_
*665 net91
*666 net89
*667 net88
*668 net87
*669 net86
*670 _0669_
*671 _0670_
*672 net85
*673 _0672_
*674 _0673_
*675 _0674_
*676 net84
*677 _0676_
*678 _0677_
*679 _0678_
*680 _0679_
*681 net83
*682 _0681_
*683 _0682_
*684 _0683_
*685 _0684_
*686 _0685_
*687 _0686_
*688 _0687_
*689 _0688_
*690 _0689_
*691 _0690_
*692 net82
*693 _0692_
*694 _0693_
*695 _0694_
*696 _0695_
*697 _0696_
*698 _0697_
*699 _0698_
*700 _0699_
*701 _0700_
*702 _0701_
*703 _0702_
*704 _0703_
*705 _0704_
*706 _0705_
*707 _0706_
*708 net81
*709 _0708_
*710 net80
*711 _0710_
*712 _0711_
*713 _0712_
*714 _0713_
*715 _0714_
*716 _0715_
*717 _0716_
*718 _0717_
*719 _0718_
*720 _0719_
*721 _0720_
*722 _0721_
*723 _0722_
*724 _0723_
*725 _0724_
*726 _0725_
*727 _0726_
*728 _0727_
*729 _0728_
*730 _0729_
*731 _0730_
*732 _0731_
*733 _0732_
*734 _0733_
*735 _0734_
*736 _0735_
*737 _0736_
*738 net79
*739 _0738_
*740 _0739_
*741 net78
*742 net77
*743 _0742_
*744 _0743_
*745 _0744_
*746 _0745_
*747 net76
*748 net75
*749 _0748_
*750 _0749_
*751 net74
*752 net73
*753 net72
*754 _0753_
*755 _0754_
*756 net71
*757 net70
*758 net69
*759 _0758_
*760 _0759_
*761 _0760_
*762 _0761_
*763 _0762_
*764 _0763_
*765 _0764_
*766 _0765_
*767 _0766_
*768 _0767_
*769 _0768_
*770 _0769_
*771 _0770_
*772 _0771_
*773 _0772_
*774 _0773_
*775 _0774_
*776 _0775_
*777 _0776_
*778 _0777_
*779 _0778_
*780 net68
*781 _0780_
*782 _0781_
*783 _0782_
*784 net67
*785 _0784_
*786 _0785_
*787 net66
*788 _0787_
*789 _0788_
*790 net65
*791 net64
*792 _0791_
*793 _0792_
*794 _0793_
*795 _0794_
*796 _0795_
*797 net63
*798 _0797_
*799 _0798_
*800 _0799_
*801 _0800_
*802 _0801_
*803 _0802_
*804 _0803_
*805 _0804_
*806 _0805_
*807 net62
*808 _0807_
*809 _0808_
*810 _0809_
*811 _0810_
*812 _0811_
*813 _0812_
*814 net61
*815 _0814_
*816 net60
*817 _0816_
*818 net59
*819 _0818_
*820 _0819_
*821 _0820_
*822 _0821_
*823 net58
*824 _0823_
*825 _0824_
*826 _0825_
*827 _0826_
*828 net57
*829 net56
*830 net55
*831 _0830_
*832 net54
*833 _0832_
*834 _0833_
*835 _0834_
*836 _0835_
*837 _0836_
*838 _0837_
*839 net53
*840 _0839_
*841 _0840_
*842 _0841_
*843 net52
*844 _0843_
*845 _0844_
*846 _0845_
*847 _0846_
*848 net51
*849 _0848_
*850 _0849_
*851 _0850_
*852 _0851_
*853 _0852_
*854 net50
*855 _0854_
*856 _0855_
*857 _0856_
*858 _0857_
*859 _0858_
*860 _0859_
*861 _0860_
*862 _0861_
*863 _0862_
*864 _0863_
*865 _0864_
*866 _0865_
*867 _0866_
*868 _0867_
*869 _0868_
*870 _0869_
*871 _0870_
*872 net49
*873 _0872_
*874 _0873_
*875 _0874_
*876 _0875_
*877 _0876_
*878 _0877_
*879 _0878_
*880 _0879_
*881 _0880_
*882 _0881_
*883 _0882_
*884 net48
*885 _0884_
*886 _0885_
*887 _0886_
*888 _0887_
*889 _0888_
*890 _0889_
*891 _0890_
*892 _0891_
*893 _0892_
*894 net47
*895 net46
*896 _0895_
*897 _0896_
*898 _0897_
*899 _0898_
*900 net45
*901 _0900_
*902 _0901_
*903 net44
*904 net43
*905 _0904_
*906 _0905_
*907 _0906_
*908 _0907_
*909 _0908_
*910 _0909_
*911 _0910_
*912 net42
*913 net41
*914 _0913_
*915 net40
*916 _0915_
*917 net39
*918 _0917_
*919 _0918_
*920 _0919_
*921 _0920_
*922 _0921_
*923 _0922_
*924 net38
*925 _0924_
*926 _0925_
*927 _0926_
*928 _0927_
*929 _0928_
*930 _0929_
*931 _0930_
*932 _0931_
*933 _0932_
*934 _0933_
*935 _0934_
*936 net37
*937 _0936_
*938 _0937_
*939 _0938_
*940 _0939_
*941 _0940_
*942 _0941_
*943 _0942_
*944 _0943_
*945 _0944_
*946 _0945_
*947 _0946_
*948 _0947_
*949 _0948_
*950 _0949_
*951 _0950_
*952 _0951_
*953 _0952_
*954 _0953_
*955 _0954_
*956 net36
*957 _0956_
*958 _0957_
*959 _0958_
*960 _0959_
*961 _0960_
*962 _0961_
*963 net35
*964 _0963_
*965 _0964_
*966 net34
*967 _0966_
*968 _0967_
*969 _0968_
*970 _0969_
*971 _0970_
*972 _0971_
*973 _0972_
*974 _0973_
*975 _0974_
*976 _0975_
*977 _0976_
*978 _0977_
*979 _0978_
*980 net33
*981 net32
*982 _0981_
*983 _0982_
*984 _0983_
*985 _0984_
*986 _0985_
*987 _0986_
*988 net31
*989 _0988_
*990 _0989_
*991 _0990_
*992 _0991_
*993 _0992_
*994 _0993_
*995 _0994_
*996 _0995_
*997 _0996_
*998 _0997_
*999 _0998_
*1000 net30
*1001 _1000_
*1002 _1001_
*1003 _1002_
*1004 _1003_
*1005 _1004_
*1006 _1005_
*1007 _1006_
*1008 _1007_
*1009 _1008_
*1010 _1009_
*1011 _1010_
*1012 _1011_
*1013 _1012_
*1014 _1013_
*1015 _1014_
*1016 _1015_
*1017 _1016_
*1018 _1017_
*1019 _1018_
*1020 _1019_
*1021 _1020_
*1022 _1021_
*1023 _1022_
*1024 _1023_
*1025 _1024_
*1026 _1025_
*1027 _1026_
*1028 _1027_
*1029 net29
*1030 _1029_
*1031 _1030_
*1032 net28
*1033 _1032_
*1034 net27
*1035 net26
*1036 net25
*1037 net24
*1038 _1037_
*1039 _1038_
*1040 _1039_
*1041 net23
*1042 _1041_
*1043 net22
*1044 _1043_
*1045 net21
*1046 net20
*1047 _1046_
*1048 net19
*1049 net18
*1050 _1049_
*1051 _1050_
*1052 _1051_
*1053 _1052_
*1054 net17
*1055 _1054_
*1056 _1055_
*1057 _1056_
*1058 _1057_
*1059 _1058_
*1060 _1059_
*1061 _1060_
*1062 net16
*1063 _1062_
*1064 _1063_
*1065 _1064_
*1066 net15
*1067 net14
*1068 _1067_
*1069 net13
*1070 _1069_
*1071 net12
*1072 _1071_
*1073 net11
*1074 net10
*1075 _1074_
*1076 _1075_
*1077 net9
*1078 _1077_
*1079 _1078_
*1080 _1079_
*1081 _1080_
*1082 _1081_
*1083 _1082_
*1084 _1083_
*1085 _1084_
*1086 net8
*1087 _1086_
*1088 _1087_
*1089 net7
*1090 _1089_
*1091 _1090_
*1092 _1091_
*1093 _1092_
*1094 _1093_
*1095 _1094_
*1096 _1095_
*1097 _1096_
*1098 _1097_
*1099 _1098_
*1100 _1099_
*1101 _1100_
*1102 _1101_
*1103 _1102_
*1104 _1103_
*1105 _1104_
*1106 _1105_
*1107 _1106_
*1108 _1107_
*1109 _1108_
*1110 _1109_
*1111 _1110_
*1112 _1111_
*1113 _1112_
*1114 _1113_
*1115 _1114_
*1116 _1115_
*1117 _1116_
*1118 _1117_
*1119 _1118_
*1120 _1119_
*1121 _1120_
*1122 _1121_
*1123 _1122_
*1124 _1123_
*1125 _1124_
*1126 _1125_
*1127 _1126_
*1128 net6
*1129 _1128_
*1130 _1129_
*1131 _1130_
*1132 net5
*1133 _1132_
*1134 _1133_
*1135 _1134_
*1136 _1135_
*1137 _1136_
*1138 _1137_
*1139 _1138_
*1140 _1139_
*1141 _1140_
*1142 _1141_
*1143 _1142_
*1144 _1143_
*1145 _1144_
*1146 _1145_
*1147 _1146_
*1148 _1147_
*1149 _1148_
*1150 _1149_
*1151 _1150_
*1152 _1151_
*1153 _1152_
*1154 _1153_
*1155 _1154_
*1156 _1155_
*1157 _1156_
*1158 _1157_
*1159 _1158_
*1160 _1159_
*1161 _1160_
*1162 _1161_
*1163 _1162_
*1164 _1163_
*1165 _1164_
*1166 _1165_
*1167 _1166_
*1168 _1167_
*1169 _1168_
*1170 _1169_
*1171 _1170_
*1172 _1171_
*1173 _1172_
*1174 _1173_
*1175 _1174_
*1176 _1175_
*1177 _1176_
*1178 _1177_
*1179 _1178_
*1180 _1179_
*1181 _1180_
*1182 _1181_
*1183 _1182_
*1184 _1183_
*1185 _1184_
*1186 _1185_
*1187 _1186_
*1188 _1187_
*1189 _1188_
*1190 _1189_
*1191 _1190_
*1192 _1191_
*1193 _1192_
*1194 _1193_
*1195 _1194_
*1196 _1195_
*1197 _1196_
*1198 _1197_
*1199 _1198_
*1200 _1199_
*1201 _1200_
*1202 _1201_
*1203 _1202_
*1204 _1203_
*1205 _1204_
*1206 _1205_
*1207 _1206_
*1208 _1207_
*1209 _1208_
*1210 _1209_
*1211 _1210_
*1212 _1211_
*1213 _1212_
*1214 _1213_
*1215 _1214_
*1216 _1215_
*1217 _1216_
*1218 _1217_
*1219 _1218_
*1220 _1219_
*1221 _1220_
*1222 _1221_
*1223 _1222_
*1224 _1223_
*1225 _1224_
*1226 _1225_
*1227 _1226_
*1228 _1227_
*1229 _1228_
*1230 _1229_
*1231 _1230_
*1232 _1231_
*1233 _1232_
*1234 _1233_
*1235 _1234_
*1236 _1235_
*1237 _1236_
*1238 _1237_
*1239 _1238_
*1240 _1239_
*1241 _1240_
*1242 _1241_
*1243 _1242_
*1244 _1243_
*1245 _1244_
*1246 _1245_
*1247 _1246_
*1248 _1247_
*1249 _1248_
*1250 _1249_
*1251 _1250_
*1252 _1251_
*1253 _1252_
*1254 _1253_
*1255 _1254_
*1256 _1255_
*1257 _1256_
*1258 _1257_
*1259 _1258_
*1260 _1259_
*1261 _1260_
*1262 _1261_
*1263 _1262_
*1264 _1263_
*1265 _1264_
*1266 _1265_
*1267 _1266_
*1268 _1267_
*1269 _1268_
*1270 _1269_
*1271 _1270_
*1272 _1271_
*1273 _1272_
*1274 _1273_
*1275 _1274_
*1276 _1275_
*1277 _1276_
*1278 _1277_
*1279 _1278_
*1280 _1279_
*1281 _1280_
*1282 _1281_
*1283 _1282_
*1284 _1283_
*1285 _1284_
*1286 _1285_
*1287 _1286_
*1288 _1287_
*1289 _1288_
*1290 _1289_
*1291 _1290_
*1292 _1291_
*1293 _1292_
*1294 _1293_
*1295 _1294_
*1296 _1295_
*1297 _1296_
*1298 _1297_
*1299 _1298_
*1300 _1299_
*1301 _1300_
*1302 _1301_
*1303 _1302_
*1304 _1303_
*1305 _1304_
*1306 _1305_
*1307 _1306_
*1308 _1307_
*1309 _1308_
*1310 _1309_
*1311 _1310_
*1312 net1
*1314 clk
*1315 ena
*1316 rst_n
*1317 simon1\.millis_counter\[0\]
*1318 simon1\.millis_counter\[1\]
*1319 simon1\.millis_counter\[2\]
*1320 simon1\.millis_counter\[3\]
*1321 simon1\.millis_counter\[4\]
*1322 simon1\.millis_counter\[5\]
*1323 simon1\.millis_counter\[6\]
*1324 simon1\.millis_counter\[7\]
*1325 simon1\.millis_counter\[8\]
*1326 simon1\.millis_counter\[9\]
*1327 simon1\.next_random\[0\]
*1328 simon1\.next_random\[1\]
*1329 simon1\.play1\.freq\[0\]
*1330 simon1\.play1\.freq\[1\]
*1331 simon1\.play1\.freq\[2\]
*1332 simon1\.play1\.freq\[3\]
*1333 simon1\.play1\.freq\[4\]
*1334 simon1\.play1\.freq\[5\]
*1335 simon1\.play1\.freq\[6\]
*1336 simon1\.play1\.freq\[7\]
*1337 simon1\.play1\.freq\[8\]
*1338 simon1\.play1\.freq\[9\]
*1340 simon1\.play1\.tick_counter\[0\]
*1341 simon1\.play1\.tick_counter\[10\]
*1342 simon1\.play1\.tick_counter\[11\]
*1343 simon1\.play1\.tick_counter\[12\]
*1344 simon1\.play1\.tick_counter\[13\]
*1345 simon1\.play1\.tick_counter\[14\]
*1346 simon1\.play1\.tick_counter\[15\]
*1347 simon1\.play1\.tick_counter\[16\]
*1348 simon1\.play1\.tick_counter\[17\]
*1349 simon1\.play1\.tick_counter\[18\]
*1350 simon1\.play1\.tick_counter\[19\]
*1351 simon1\.play1\.tick_counter\[1\]
*1352 simon1\.play1\.tick_counter\[20\]
*1353 simon1\.play1\.tick_counter\[21\]
*1354 simon1\.play1\.tick_counter\[22\]
*1355 simon1\.play1\.tick_counter\[23\]
*1356 simon1\.play1\.tick_counter\[24\]
*1357 simon1\.play1\.tick_counter\[25\]
*1358 simon1\.play1\.tick_counter\[26\]
*1359 simon1\.play1\.tick_counter\[27\]
*1360 simon1\.play1\.tick_counter\[28\]
*1361 simon1\.play1\.tick_counter\[29\]
*1362 simon1\.play1\.tick_counter\[2\]
*1363 simon1\.play1\.tick_counter\[30\]
*1364 simon1\.play1\.tick_counter\[31\]
*1365 simon1\.play1\.tick_counter\[3\]
*1366 simon1\.play1\.tick_counter\[4\]
*1367 simon1\.play1\.tick_counter\[5\]
*1368 simon1\.play1\.tick_counter\[6\]
*1369 simon1\.play1\.tick_counter\[7\]
*1370 simon1\.play1\.tick_counter\[8\]
*1371 simon1\.play1\.tick_counter\[9\]
*1372 simon1\.score1\.active_digit
*1373 simon1\.score1\.ena
*1374 simon1\.score1\.inc
*1375 simon1\.score1\.ones\[0\]
*1376 simon1\.score1\.ones\[1\]
*1377 simon1\.score1\.ones\[2\]
*1378 simon1\.score1\.ones\[3\]
*1379 simon1\.score1\.tens\[0\]
*1380 simon1\.score1\.tens\[1\]
*1381 simon1\.score1\.tens\[2\]
*1382 simon1\.score1\.tens\[3\]
*1383 simon1\.score_rst
*1384 simon1\.seq\[0\]\[0\]
*1385 simon1\.seq\[0\]\[1\]
*1386 simon1\.seq\[10\]\[0\]
*1387 simon1\.seq\[10\]\[1\]
*1388 simon1\.seq\[11\]\[0\]
*1389 simon1\.seq\[11\]\[1\]
*1390 simon1\.seq\[12\]\[0\]
*1391 simon1\.seq\[12\]\[1\]
*1392 simon1\.seq\[13\]\[0\]
*1393 simon1\.seq\[13\]\[1\]
*1394 simon1\.seq\[14\]\[0\]
*1395 simon1\.seq\[14\]\[1\]
*1396 simon1\.seq\[15\]\[0\]
*1397 simon1\.seq\[15\]\[1\]
*1398 simon1\.seq\[16\]\[0\]
*1399 simon1\.seq\[16\]\[1\]
*1400 simon1\.seq\[17\]\[0\]
*1401 simon1\.seq\[17\]\[1\]
*1402 simon1\.seq\[18\]\[0\]
*1403 simon1\.seq\[18\]\[1\]
*1404 simon1\.seq\[19\]\[0\]
*1405 simon1\.seq\[19\]\[1\]
*1406 simon1\.seq\[1\]\[0\]
*1407 simon1\.seq\[1\]\[1\]
*1408 simon1\.seq\[20\]\[0\]
*1409 simon1\.seq\[20\]\[1\]
*1410 simon1\.seq\[21\]\[0\]
*1411 simon1\.seq\[21\]\[1\]
*1412 simon1\.seq\[22\]\[0\]
*1413 simon1\.seq\[22\]\[1\]
*1414 simon1\.seq\[23\]\[0\]
*1415 simon1\.seq\[23\]\[1\]
*1416 simon1\.seq\[24\]\[0\]
*1417 simon1\.seq\[24\]\[1\]
*1418 simon1\.seq\[25\]\[0\]
*1419 simon1\.seq\[25\]\[1\]
*1420 simon1\.seq\[26\]\[0\]
*1421 simon1\.seq\[26\]\[1\]
*1422 simon1\.seq\[27\]\[0\]
*1423 simon1\.seq\[27\]\[1\]
*1424 simon1\.seq\[28\]\[0\]
*1425 simon1\.seq\[28\]\[1\]
*1426 simon1\.seq\[29\]\[0\]
*1427 simon1\.seq\[29\]\[1\]
*1428 simon1\.seq\[2\]\[0\]
*1429 simon1\.seq\[2\]\[1\]
*1430 simon1\.seq\[30\]\[0\]
*1431 simon1\.seq\[30\]\[1\]
*1432 simon1\.seq\[31\]\[0\]
*1433 simon1\.seq\[31\]\[1\]
*1434 simon1\.seq\[3\]\[0\]
*1435 simon1\.seq\[3\]\[1\]
*1436 simon1\.seq\[4\]\[0\]
*1437 simon1\.seq\[4\]\[1\]
*1438 simon1\.seq\[5\]\[0\]
*1439 simon1\.seq\[5\]\[1\]
*1440 simon1\.seq\[6\]\[0\]
*1441 simon1\.seq\[6\]\[1\]
*1442 simon1\.seq\[7\]\[0\]
*1443 simon1\.seq\[7\]\[1\]
*1444 simon1\.seq\[8\]\[0\]
*1445 simon1\.seq\[8\]\[1\]
*1446 simon1\.seq\[9\]\[0\]
*1447 simon1\.seq\[9\]\[1\]
*1448 simon1\.seq_counter\[0\]
*1449 simon1\.seq_counter\[1\]
*1450 simon1\.seq_counter\[2\]
*1451 simon1\.seq_counter\[3\]
*1452 simon1\.seq_counter\[4\]
*1453 simon1\.seq_length\[0\]
*1454 simon1\.seq_length\[1\]
*1455 simon1\.seq_length\[2\]
*1456 simon1\.seq_length\[3\]
*1457 simon1\.seq_length\[4\]
*1458 simon1\.state\[0\]
*1459 simon1\.state\[1\]
*1460 simon1\.state\[2\]
*1461 simon1\.state\[3\]
*1462 simon1\.state\[4\]
*1463 simon1\.state\[5\]
*1464 simon1\.state\[6\]
*1465 simon1\.state\[7\]
*1466 simon1\.tick_counter\[0\]
*1467 simon1\.tick_counter\[10\]
*1468 simon1\.tick_counter\[11\]
*1469 simon1\.tick_counter\[12\]
*1470 simon1\.tick_counter\[13\]
*1471 simon1\.tick_counter\[14\]
*1472 simon1\.tick_counter\[15\]
*1473 simon1\.tick_counter\[1\]
*1474 simon1\.tick_counter\[2\]
*1475 simon1\.tick_counter\[3\]
*1476 simon1\.tick_counter\[4\]
*1477 simon1\.tick_counter\[5\]
*1478 simon1\.tick_counter\[6\]
*1479 simon1\.tick_counter\[7\]
*1480 simon1\.tick_counter\[8\]
*1481 simon1\.tick_counter\[9\]
*1482 simon1\.tone_sequence_counter\[0\]
*1483 simon1\.tone_sequence_counter\[1\]
*1484 simon1\.tone_sequence_counter\[2\]
*1485 simon1\.user_input\[0\]
*1486 simon1\.user_input\[1\]
*1487 ui_in[0]
*1488 ui_in[1]
*1489 ui_in[2]
*1490 ui_in[3]
*1491 ui_in[4]
*1492 ui_in[5]
*1493 ui_in[6]
*1494 ui_in[7]
*1495 uio_in[0]
*1496 uio_in[1]
*1497 uio_in[2]
*1498 uio_in[3]
*1499 uio_in[4]
*1500 uio_in[5]
*1501 uio_in[6]
*1502 uio_in[7]
*1503 clknet_0_clk
*1504 uio_oe[1]
*1505 uio_oe[2]
*1506 uio_oe[3]
*1507 uio_oe[4]
*1508 uio_oe[5]
*1509 uio_oe[6]
*1510 net90
*1511 uio_out[0]
*1512 uio_out[1]
*1513 uio_out[2]
*1514 uio_out[3]
*1515 uio_out[4]
*1516 uio_out[5]
*1517 uio_out[6]
*1518 uio_out[7]
*1519 uo_out[0]
*1520 uo_out[1]
*1521 uo_out[2]
*1522 uo_out[3]
*1523 uo_out[4]
*1524 uo_out[5]
*1525 uo_out[6]
*1526 uo_out[7]
*1527 net109
*1528 net110
*1529 net111
*1530 net112
*1531 net113
*1532 net114
*1533 net115
*1534 net116
*1535 net117
*1536 net118
*1537 net119
*1538 net120
*1539 net121
*1540 net122
*1541 net123
*1542 net124
*1543 net125
*1544 net126
*1545 net127
*1546 net128
*1547 net129
*1548 net130
*1549 net131
*1550 net132
*1551 net133
*1552 net134
*1553 net135
*1554 net136
*1555 net137
*1556 net138
*1557 net139
*1558 net140
*1559 net141
*1560 net142
*1561 net143
*1562 net144
*1563 net145
*1564 net146
*1565 net147
*1566 net148
*1567 net149
*1568 net150
*1569 net151
*1570 net152
*1571 net153
*1572 net154
*1573 net155
*1574 net156
*1575 net157
*1576 net158
*1577 net159
*1578 net160
*1579 net161
*1580 net162
*1581 net163
*1582 net164
*1583 net165
*1584 net166
*1585 net167
*1586 net168
*1587 net169
*1588 net170
*1589 net171
*1590 net172
*1591 net173
*1592 net174
*1593 net175
*1594 net176
*1595 net177
*1596 net178
*1597 net179
*1598 net180
*1599 net181
*1600 net182
*1601 net183
*1602 net184
*1603 net185
*1604 net186
*1605 net187
*1606 net188
*1607 net189
*1608 net190
*1609 net191
*1610 net192
*1611 net193
*1612 net194
*1613 net195
*1614 net196
*1615 net197
*1616 net198
*1617 net199
*1618 net200
*1619 net201
*1620 net202
*1621 net203
*1622 net204
*1623 net205
*1624 net206
*1625 net207
*1626 net208
*1627 net209
*1628 net210
*1629 net211
*1630 net212
*1631 net213
*1632 net214
*1633 net215
*1634 net216
*1635 net217
*1636 net218
*1637 net219
*1638 net220
*1639 net221
*1640 net222
*1641 net223
*1642 net224
*1643 net225
*1644 net226
*1645 net227
*1646 net228
*1647 net229
*1648 net230
*1649 net231
*1650 net232
*1651 net233
*1652 net234
*1653 net235
*1654 net236
*1655 net237
*1656 net238
*1657 net239
*1658 net240
*1659 net241
*1660 net242
*1661 net243
*1662 net244
*1663 net245
*1664 net246
*1665 net247
*1666 net248
*1667 net249
*1668 net250
*1669 net251
*1670 net252
*1671 net253
*1672 net254
*1673 net255
*1674 net256
*1675 net257
*1676 net258
*1677 net259
*1678 net260
*1679 net261
*1680 net262
*1681 net263
*1682 net264
*1683 net265
*1684 net266
*1685 net267
*1686 net268
*1687 net269
*1688 net270
*1689 net271
*1690 net272
*1691 net273
*1692 net274
*1693 net275
*1694 net276
*1695 net277
*1696 net278
*1697 net279
*1698 net280
*1699 net281
*1700 net282
*1701 net283
*1702 net284
*1703 clknet_4_0_0_clk
*1704 clknet_4_1_0_clk
*1705 clknet_4_2_0_clk
*1706 clknet_4_3_0_clk
*1707 clknet_4_4_0_clk
*1708 clknet_4_5_0_clk
*1709 clknet_4_6_0_clk
*1710 clknet_4_7_0_clk
*1711 clknet_4_8_0_clk
*1712 clknet_4_9_0_clk
*1713 clknet_4_10_0_clk
*1714 clknet_4_11_0_clk
*1715 clknet_4_12_0_clk
*1716 clknet_4_13_0_clk
*1717 clknet_4_14_0_clk
*1718 clknet_4_15_0_clk
*1719 _1313_
*1720 _1314_
*1721 _1315_
*1722 _1316_
*1723 simon1\.millis_counter\[8\]\$_SDFF_PN0__110
*1724 _1318_
*1725 _1319_
*1726 _1320_
*1727 _1321_
*1728 _1322_
*1729 _1323_
*1730 _1324_
*1731 _1325_
*1732 _1326_
*1733 _1327_
*1734 _1328_
*1735 _1329_
*1736 _1330_
*1737 _1331_
*1738 _1332_
*1739 _1333_
*1740 _1334_
*1741 simon1\.millis_counter\[7\]\$_SDFF_PN0__109
*1742 _1336_
*1743 _1337_
*1744 _1338_
*1745 _1339_
*1746 _1340_
*1747 _1341_
*1748 _1342_
*1749 _1343_
*1750 _1344_
*1751 _1345_
*1752 _1346_
*1753 _1347_
*1754 _1348_
*1755 _1349_
*1756 _1350_
*1757 _1351_
*1758 _1352_
*1759 _1353_
*1760 _1354_
*1761 _1355_
*1762 _1356_
*1763 _1357_
*1764 _1358_
*1765 _1359_
*1766 _1360_
*1767 _1361_
*1768 _1362_
*1769 _1363_
*1770 simon1\.millis_counter\[6\]\$_SDFF_PN0__108
*1771 _1365_
*1772 _1366_
*1773 _1367_
*1774 _1368_
*1775 _1369_
*1776 _1370_
*1777 _1371_
*1778 _1372_
*1779 _1373_
*1780 _1374_
*1781 _1375_
*1782 _1376_
*1783 _1377_
*1784 _1378_
*1785 _1379_
*1786 _1380_
*1787 _1381_
*1788 _1382_
*1789 _1383_
*1790 _1384_
*1791 _1385_
*1792 _1386_
*1793 _1387_
*1794 _1388_
*1795 _1389_
*1796 simon1\.millis_counter\[5\]\$_SDFF_PN0__107
*1797 _1391_
*1798 _1392_
*1799 _1393_
*1800 _1394_
*1801 _1395_
*1802 _1396_
*1803 _1397_
*1804 _1398_
*1805 _1399_
*1806 _1400_
*1807 _1401_
*1808 _1402_
*1809 _1403_
*1810 _1404_
*1811 _1405_
*1812 _1406_
*1813 _1407_
*1814 _1408_
*1815 simon1\.millis_counter\[4\]\$_SDFF_PN0__106
*1816 _1410_
*1817 _1411_
*1818 _1412_
*1819 _1413_
*1820 _1414_
*1821 _1415_
*1822 _1416_
*1823 _1417_
*1824 _1418_
*1825 _1419_
*1826 _1420_
*1827 _1421_
*1828 _1422_
*1829 _1423_
*1830 _1424_
*1831 simon1\.millis_counter\[3\]\$_SDFF_PN0__105
*1832 _1426_
*1833 _1427_
*1834 _1428_
*1835 _1429_
*1836 _1430_
*1837 _1431_
*1838 _1432_
*1839 _1433_
*1840 simon1\.millis_counter\[2\]\$_SDFF_PN0__104
*1841 _1435_
*1842 _1436_
*1843 _1437_
*1844 _1438_
*1845 _1439_
*1846 _1440_
*1847 _1441_
*1848 _1442_
*1849 _1443_
*1850 _1444_
*1851 _1445_
*1852 _1446_
*1853 _1447_
*1854 _1448_
*1855 _1449_
*1856 _1450_
*1857 _1451_
*1858 _1452_
*1859 _1453_
*1860 _1454_
*1861 _1455_
*1862 _1456_
*1863 _1457_
*1864 _1458_
*1865 _1459_
*1866 _1460_
*1867 _1461_
*1868 _1462_
*1869 _1463_
*1870 _1464_
*1871 _1465_
*1872 _1466_
*1873 _1467_
*1874 _1468_
*1875 _1469_
*1876 _1470_
*1877 _1471_
*1878 _1472_
*1879 _1473_
*1880 _1474_
*1881 _1475_
*1882 _1476_
*1883 _1477_
*1884 _1478_
*1885 simon1\.millis_counter\[1\]\$_SDFF_PN0__103
*1886 _1480_
*1887 _1481_
*1888 _1482_
*1889 _1483_
*1890 _1484_
*1891 _1485_
*1892 _1486_
*1893 _1487_
*1894 _1488_
*1895 _1489_
*1896 _1490_
*1897 _1491_
*1898 _1492_
*1899 _1493_
*1900 _1494_
*1901 _1495_
*1902 _1496_
*1903 _1497_
*1904 _1498_
*1905 _1499_
*1906 simon1\.millis_counter\[0\]\$_SDFF_PN0__102
*1907 _1501_
*1908 _1502_
*1909 _1503_
*1910 _1504_
*1911 _1505_
*1912 _2444__101
*1913 _1507_
*1914 _1508_
*1915 _1509_
*1916 _1510_
*1917 _1511_
*1918 _1512_
*1919 _1513_
*1920 _1514_
*1921 _1515_
*1922 _1516_
*1923 _1517_
*1924 _1518_
*1925 _1519_
*1926 _1520_
*1927 _1521_
*1928 _1522_
*1929 _1523_
*1930 _1524_
*1931 _1525_
*1932 _1526_
*1933 _1527_
*1934 _1528_
*1935 _1529_
*1936 _1530_
*1937 _1531_
*1938 _1532_
*1939 _1533_
*1940 _1534_
*1941 _1535_
*1942 _1536_
*1943 _1537_
*1944 _1538_
*1945 _1539_
*1946 _1540_
*1947 _1541_
*1948 _1542_
*1949 _1543_
*1950 _1544_
*1951 _1545_
*1952 _1546_
*1953 _1547_
*1954 _1548_
*1955 _1549_
*1956 _1550_
*1957 _1551_
*1958 _1552_
*1959 _1553_
*1960 _1554_
*1961 _1555_
*1962 _1556_
*1963 _1557_
*1964 _1558_
*1965 _1559_
*1966 _1560_
*1967 _1561_
*1968 _1562_
*1969 _1563_
*1970 _1564_
*1971 _1565_
*1972 _1566_
*1973 _1567_
*1974 _1568_
*1975 _1569_
*1976 _1570_
*1977 _1571_
*1978 _1572_
*1979 _1573_
*1980 _1574_
*1981 _1575_
*1982 _1576_
*1983 _1577_
*1984 _1578_
*1985 _1579_
*1986 _1580_
*1987 _1581_
*1988 _1582_
*1989 _1583_
*1990 _1584_
*1991 _1585_
*1992 _1586_
*1993 _1587_
*1994 _1588_
*1995 _1589_
*1996 _1590_
*1997 _1591_
*1998 _1592_
*1999 _1593_
*2000 _1594_
*2001 _1595_
*2002 _1596_
*2003 _1597_
*2004 _1598_
*2005 _1599_
*2006 _1600_
*2007 _2443__100
*2008 _1602_
*2009 _1603_
*2010 _1604_
*2011 _1605_
*2012 _1606_
*2013 _1607_
*2014 _1608_
*2015 _1609_
*2016 _1610_
*2017 _1611_
*2018 _2442__99
*2019 _1613_
*2020 _1614_
*2021 _1615_
*2022 _1616_
*2023 _1617_
*2024 _1618_
*2025 _1619_
*2026 _1620_
*2027 _1621_
*2028 _1622_
*2029 _1623_
*2030 _1624_
*2031 _1625_
*2032 _1626_
*2033 _1627_
*2034 _1628_
*2035 _1629_
*2036 _1630_
*2037 _1631_
*2038 _1632_
*2039 _1633_
*2040 _1634_
*2041 _1635_
*2042 _1636_
*2043 _1637_
*2044 _1638_
*2045 _1639_
*2046 _1640_
*2047 _1641_
*2048 _1642_
*2049 _1643_
*2050 _1644_
*2051 _1645_
*2052 _1646_
*2053 _1647_
*2054 _1648_
*2055 _1649_
*2056 _1650_
*2057 _1651_
*2058 _1652_
*2059 _1653_
*2060 _1654_
*2061 _1655_
*2062 _1656_
*2063 _1657_
*2064 _1658_
*2065 _1659_
*2066 _1660_
*2067 _1661_
*2068 _1662_
*2069 _1663_
*2070 _1664_
*2071 _1665_
*2072 _1666_
*2073 _1667_
*2074 _1668_
*2075 _1669_
*2076 _1670_
*2077 _1671_
*2078 _1672_
*2079 _1673_
*2080 _1674_
*2081 _1675_
*2082 _1676_
*2083 _1677_
*2084 _1678_